case34x15ev.m
function mpc = case34x15ev
%CASE5  Power flow data for modified 5 bus, 5 gen case based on PJM 5-bus system
%   Please see CASEFORMAT for details on the case file format.
%
%   Based on data from ...
%     F.Li and R.Bo, "Small Test Systems for Power System Economic Studies",
%     Proceedings of the 2010 IEEE Power & Energy Society General Meeting

%   Created by Rui Bo in 2006, modified in 2010, 2014.
%   Distributed with permission.

%   MATPOWER

%% MATPOWER Case Format : Version 2
mpc.version = '2';

%%-----  Power Flow Data  -----%%
%% system MVA base
mpc.baseMVA = 100; % 0.1 = 100 kVA

%% bus data
%	bus_i	type	Pd	Qd	Gs	Bs	area	Vm	Va	baseKV	zone	Vmax	Vmin
mpc.bus = [
	1	3	0.00000	    0.00000	0	0	1	1.00	0	24.94	1	1.05	0.95;
	2	1	0.186	    0.03015	0	0	1	1.00	0	.240	1	1.1	0.9;
	3	1	0.186	    0.03015	0	0	1	1.00	0	.240	1	1.1	0.9;
	4	1	0.186	    0.03015	0	0	1	1.00	0	.240	1	1.1	0.9;
	5	1	0.186	    0.03015	0	0	1	1.00	0	.240	1	1.1	0.9;
    6	1	0.186	    0.03015	0	0	1	1.00	0	.240	1	1.1	0.9;
    7	1	0.186	    0.03015	0	0	1	1.00	0	.240	1	1.1	0.9;
    8	1	0.186	    0.03015	0	0	1	1.00	0	.240	1	1.1	0.9;
    9	1	0.186	    0.03015	0	0	1	1.00	0	.240	1	1.1	0.9;
    10	1	0.186	    0.03015	0	0	1	1.00	0	.240	1	1.1	0.9;
    11	1	0.186	    0.03015	0	0	1	1.00	0	.240	1	1.1	0.9;
    12	1	0.186	    0.03015	0	0	1	1.00	0	.240	1	1.1	0.9;
    13	1	0.186	    0.03015	0	0	1	1.00	0	.240	1	1.1	0.9;
    14	1	0.186	    0.03015	0	0	1	1.00	0	.240	1	1.1	0.9;
    15	1	0.186	    0.03015	0	0	1	1.00	0	.240	1	1.1	0.9;
    16	1	0.186	    0.03015	0	0	1	1.00	0	.240	1	1.1	0.9;
    17	1	0.186	    0.03015	0	0	1	1.00	0	.240	1	1.1	0.9;
    18	1	0.186	    0.03015	0	0	1	1.00	0	.240	1	1.1	0.9;
    19	1	0.186	    0.03015	0	0	1	1.00	0	.240	1	1.1	0.9;
    20	1	0.186	    0.03015	0	0	1	1.00	0	.240	1	1.1	0.9;
    21	1	0.186	    0.03015	0	0	1	1.00	0	.240	1	1.1	0.9;
    22	1	0.186	    0.03015	0	0	1	1.00	0	.240	1	1.1	0.9;
    23	1	0.186	    0.03015	0	0	1	1.00	0	.240	1	1.1	0.9;
    24	1	0.186	    0.03015	0	0	1	1.00	0	.240	1	1.1	0.9;
    25	1	0.186	    0.03015	0	0	1	1.00	0	.240	1	1.1	0.9;
    26	1	0.186	    0.03015	0	0	1	1.00	0	.240	1	1.1	0.9;
    27	1	0.186	    0.03015	0	0	1	1.00	0	.240	1	1.1	0.9;
    28	1	0.186	    0.03015	0	0	1	1.00	0	.240	1	1.1	0.9;
    29	1	0.186	    0.03015	0	0	1	1.00	0	.240	1	1.1	0.9;
    30	1	0.186	    0.03015	0	0	1	1.00	0	.240	1	1.1	0.9;
    31	1	0.186	    0.03015	0	0	1	1.00	0	.240	1	1.1	0.9;
    32	1	0.186	    0.03015	0	0	1	1.00	0	.240	1	1.1	0.9;
    33	1	0.186	    0.03015	0	0	1	1.00	0	.240	1	1.1	0.9;
    34	1	0.186	    0.03015	0	0	1	1.00	0	.240	1	1.1	0.9;
];

%% generator data
%	bus	Pg	Qg	Qmax	Qmin	Vg	mBase	status	Pmax	Pmin	Pc1	Pc2	Qc1min	Qc1max	Qc2min	Qc2max	ramp_agc	ramp_10	ramp_30	ramp_q	apf
mpc.gen = [
	1	0.00    0	100	-100  1.00	100	1	0    0	0	0	0	0	0	0	0	0	0	0;
];

%% branch data %528 feet between branches
%	fbus	tbus	r	x	b	rateA	rateB	rateC	ratio	angle	status	angmin	angmax
mpc.branch = [
	1	2	0.00475    0.02886   0.00    0   0   0   0   0   1   -360	  360;
    2   3   0.00314    0.01905   0.00    0   0   0   0   0   1   -360    360;
	3   4	0.05701    0.34630   0.00	  0   0   0   0   0   1   -360    360;
    4   5   0.06651    0.40402   0.00    0   0   0   0   0   1   -360    360;
    5   6   0.05226    0.31744   0.00    0   0   0   0   0   1   -360    360;
    6   7   0.00002    0.00012   0.00    0   0   0   0   0   1   -360    360;
    7   8   0.00057    0.00346   0.00    0   0   0   0   0   1   -360    360;
    8   9   0.00314    0.01905   0.00    0   0   0   0   0   1   -360    360;
    9   10  0.00152    0.00923   0.00    0   0   0   0   0   1   -360    360;
    10  11  0.03801    0.23087   0.00    0   0   0   0   0   1   -360    360;
    11  12  0.00095    0.00577   0.00    0   0   0   0   0   1   -360    360;
    12  13  0.06651    0.40402   0.00    0   0   0   0   0   1   -360    360;
    13  14  0.00057    0.00346   0.00    0   0   0   0   0   1   -360    360;
    14  15  0.00950    0.00577   0.00    0   0   0   0   0   1   -360    360;
    15  16  0.00950    0.00577   0.00    0   0   0   0   0   1   -360    360;
    16  17  0.00380    0.02309   0.00    0   0   0   0   0   1   -360    360;
    17  18  0.00475    0.02886   0.00    0   0   0   0   0   1   -360    360;
    18  19  0.00048    0.00289   0.00    0   0   0   0   0   1   -360    360;
    19  20  0.00855    0.05195   0.00    0   0   0   0   0   1   -360    360;
    8   21  0.00314    0.01905   0.00    0   0   0   0   0   1   -360    360;
    21  22  0.08551    0.51945   0.00    0   0   0   0   0   1   -360    360;
    22  23  0.02375    0.14429   0.00    0   0   0   0   0   1   -360    360;
    9   24  0.00475    0.02886   0.00    0   0   0   0   0   1   -360    360;
    12  25  0.04276    0.25973   0.00    0   0   0   0   0   1   -360    360;
    14  26  0.00002    0.00012   0.00    0   0   0   0   0   1   -360    360;
    26  27  0.01900    0.11540   0.00    0   0   0   0   0   1   -360    360;
    15  28  0.00285    0.01732   0.00    0   0   0   0   0   1   -360    360;
    16  29  0.00048    0.00289   0.00    0   0   0   0   0   1   -360    360;
    29  30  0.00238    0.01443   0.00    0   0   0   0   0   1   -360    360;
    30  31  0.00665    0.04040   0.00    0   0   0   0   0   1   -360    360;
    31  32  0.00095    0.00057   0.00    0   0   0   0   0   1   -360    360;
    18  33  0.00190    0.01154   0.00    0   0   0   0   0   1   -360    360;
    4   34  0.00950    0.00577   0.00    0   0   0   0   0   1   -360    360;
];
